AeroDynamic Advisory Internship -- Local
AeroDynamic Advisory Analyst/Senior Analyst -- Local
